Teste 4.3 ./sim-cache -cache:il1 il1:256:64:1:l -cache:dl1 dl1:256:64:1:l -cache:il2 none -cache:dl2 none -tlb:itlb none -tlb:dtlb none   vortex.ss tiny.in

sim: ** simulation statistics **
sim_num_insn               65133764 # total number of instructions executed
sim_num_refs               34988295 # total number of loads and stores executed
sim_elapsed_time                  4 # total simulation time in seconds
sim_inst_rate          16283441.0000 # simulation speed (in insts/sec)
il1.accesses               65133764 # total number of accesses
il1.hits                   62002119 # total number of hits
il1.misses                  3131645 # total number of misses
il1.replacements            3131389 # total number of replacements
il1.writebacks                    0 # total number of writebacks
il1.invalidations                 0 # total number of invalidations
il1.miss_rate                0.0481 # miss rate (i.e., misses/ref)
il1.repl_rate                0.0481 # replacement rate (i.e., repls/ref)
il1.wb_rate                  0.0000 # writeback rate (i.e., wrbks/ref)
il1.inv_rate                 0.0000 # invalidation rate (i.e., invs/ref)
dl1.accesses               44592168 # total number of accesses
dl1.hits                   42738280 # total number of hits
dl1.misses                  1853888 # total number of misses
dl1.replacements            1853632 # total number of replacements
dl1.writebacks               580340 # total number of writebacks
dl1.invalidations                 0 # total number of invalidations
dl1.miss_rate                0.0416 # miss rate (i.e., misses/ref)
dl1.repl_rate                0.0416 # replacement rate (i.e., repls/ref)
dl1.wb_rate                  0.0130 # writeback rate (i.e., wrbks/ref)
dl1.inv_rate                 0.0000 # invalidation rate (i.e., invs/ref)
ld_text_base             0x00400000 # program text (code) segment base
ld_text_size                 990928 # program text (code) size in bytes
ld_data_base             0x10000000 # program initialized data segment base
ld_data_size                 129172 # program init'ed `.data' and uninit'ed `.bss' size in bytes
ld_stack_base            0x7fffc000 # program stack segment base (highest address in stack)
ld_stack_size                 16384 # program initial stack size
ld_prog_entry            0x00400140 # program entry point (initial PC)
ld_environ_base          0x7fff8000 # program environment base address address
ld_target_big_endian              0 # target executable endian-ness, non-zero if big endian
mem.page_count                 2323 # total number of pages allocated
mem.page_mem                  9292k # total size of memory pages allocated
mem.ptab_misses               13005 # total first level page table misses
mem.ptab_accesses         355914672 # total page table accesses
mem.ptab_miss_rate           0.0000 # first level page table miss rate

