Teste: Teste 1.1 Unificado - FIFO - 8kB unificado - Associação Direta
Comando executado: ./sim-cache -cache:dl1 ul1:128:64:1:f cc1.ss gcc.i

sim: ** simulation statistics **
sim_num_insn               45078729 # total number of instructions executed
sim_num_refs               16724967 # total number of loads and stores executed
sim_elapsed_time                  4 # total simulation time in seconds
sim_inst_rate          11269682.2500 # simulation speed (in insts/sec)
il1.accesses               45078729 # total number of accesses
il1.hits                   40435801 # total number of hits
il1.misses                  4642928 # total number of misses
il1.replacements            4642672 # total number of replacements
il1.writebacks                    0 # total number of writebacks
il1.invalidations                 0 # total number of invalidations
il1.miss_rate                0.1030 # miss rate (i.e., misses/ref)
il1.repl_rate                0.1030 # replacement rate (i.e., repls/ref)
il1.wb_rate                  0.0000 # writeback rate (i.e., wrbks/ref)
il1.inv_rate                 0.0000 # invalidation rate (i.e., invs/ref)
ul1.accesses               16855444 # total number of accesses
ul1.hits                   16048205 # total number of hits
ul1.misses                   807239 # total number of misses
ul1.replacements             807111 # total number of replacements
ul1.writebacks               259085 # total number of writebacks
ul1.invalidations                 0 # total number of invalidations
ul1.miss_rate                0.0479 # miss rate (i.e., misses/ref)
ul1.repl_rate                0.0479 # replacement rate (i.e., repls/ref)
ul1.wb_rate                  0.0154 # writeback rate (i.e., wrbks/ref)
ul1.inv_rate                 0.0000 # invalidation rate (i.e., invs/ref)
ul2.accesses                5709252 # total number of accesses
ul2.hits                    5523470 # total number of hits
ul2.misses                   185782 # total number of misses
ul2.replacements             181686 # total number of replacements
ul2.writebacks                21693 # total number of writebacks
ul2.invalidations                 0 # total number of invalidations
ul2.miss_rate                0.0325 # miss rate (i.e., misses/ref)
ul2.repl_rate                0.0318 # replacement rate (i.e., repls/ref)
ul2.wb_rate                  0.0038 # writeback rate (i.e., wrbks/ref)
ul2.inv_rate                 0.0000 # invalidation rate (i.e., invs/ref)
itlb.accesses              45078729 # total number of accesses
itlb.hits                  45028641 # total number of hits
itlb.misses                   50088 # total number of misses
itlb.replacements             50024 # total number of replacements
itlb.writebacks                   0 # total number of writebacks
itlb.invalidations                0 # total number of invalidations
itlb.miss_rate               0.0011 # miss rate (i.e., misses/ref)
itlb.repl_rate               0.0011 # replacement rate (i.e., repls/ref)
itlb.wb_rate                 0.0000 # writeback rate (i.e., wrbks/ref)
itlb.inv_rate                0.0000 # invalidation rate (i.e., invs/ref)
dtlb.accesses              16855444 # total number of accesses
dtlb.hits                  16855008 # total number of hits
dtlb.misses                     436 # total number of misses
dtlb.replacements               308 # total number of replacements
dtlb.writebacks                 135 # total number of writebacks
dtlb.invalidations                0 # total number of invalidations
dtlb.miss_rate               0.0000 # miss rate (i.e., misses/ref)
dtlb.repl_rate               0.0000 # replacement rate (i.e., repls/ref)
dtlb.wb_rate                 0.0000 # writeback rate (i.e., wrbks/ref)
dtlb.inv_rate                0.0000 # invalidation rate (i.e., invs/ref)
ld_text_base             0x00400000 # program text (code) segment base
ld_text_size                2166768 # program text (code) size in bytes
ld_data_base             0x10000000 # program initialized data segment base
ld_data_size                 264644 # program init'ed `.data' and uninit'ed `.bss' size in bytes
ld_stack_base            0x7fffc000 # program stack segment base (highest address in stack)
ld_stack_size                 16384 # program initial stack size
ld_prog_entry            0x00400140 # program entry point (initial PC)
ld_environ_base          0x7fff8000 # program environment base address address
ld_target_big_endian              0 # target executable endian-ness, non-zero if big endian
mem.page_count                  693 # total number of pages allocated
mem.page_mem                  2772k # total size of memory pages allocated
mem.ptab_misses                 703 # total first level page table misses
mem.ptab_accesses         227421898 # total page table accesses
mem.ptab_miss_rate           0.0000 # first level page table miss rate

