Teste 4.4 ./sim-cache -cache:il1 il1:128:128:1:l -cache:dl1 dl1:128:128:1:l -cache:il2 none -cache:dl2 none -tlb:itlb none -tlb:dtlb none   cc1.ss gcc.i

sim: ** simulation statistics **
sim_num_insn               45079256 # total number of instructions executed
sim_num_refs               16725170 # total number of loads and stores executed
sim_elapsed_time                  4 # total simulation time in seconds
sim_inst_rate          11269814.0000 # simulation speed (in insts/sec)
il1.accesses               45079256 # total number of accesses
il1.hits                   43403745 # total number of hits
il1.misses                  1675511 # total number of misses
il1.replacements            1675383 # total number of replacements
il1.writebacks                    0 # total number of writebacks
il1.invalidations                 0 # total number of invalidations
il1.miss_rate                0.0372 # miss rate (i.e., misses/ref)
il1.repl_rate                0.0372 # replacement rate (i.e., repls/ref)
il1.wb_rate                  0.0000 # writeback rate (i.e., wrbks/ref)
il1.inv_rate                 0.0000 # invalidation rate (i.e., invs/ref)
dl1.accesses               16855653 # total number of accesses
dl1.hits                   16244331 # total number of hits
dl1.misses                   611322 # total number of misses
dl1.replacements             611194 # total number of replacements
dl1.writebacks               192462 # total number of writebacks
dl1.invalidations                 0 # total number of invalidations
dl1.miss_rate                0.0363 # miss rate (i.e., misses/ref)
dl1.repl_rate                0.0363 # replacement rate (i.e., repls/ref)
dl1.wb_rate                  0.0114 # writeback rate (i.e., wrbks/ref)
dl1.inv_rate                 0.0000 # invalidation rate (i.e., invs/ref)
ld_text_base             0x00400000 # program text (code) segment base
ld_text_size                2166768 # program text (code) size in bytes
ld_data_base             0x10000000 # program initialized data segment base
ld_data_size                 264644 # program init'ed `.data' and uninit'ed `.bss' size in bytes
ld_stack_base            0x7fffc000 # program stack segment base (highest address in stack)
ld_stack_size                 16384 # program initial stack size
ld_prog_entry            0x00400140 # program entry point (initial PC)
ld_environ_base          0x7fff8000 # program environment base address address
ld_target_big_endian              0 # target executable endian-ness, non-zero if big endian
mem.page_count                  693 # total number of pages allocated
mem.page_mem                  2772k # total size of memory pages allocated
mem.ptab_misses                 703 # total first level page table misses
mem.ptab_accesses         227424424 # total page table accesses
mem.ptab_miss_rate           0.0000 # first level page table miss rate

