./sim-cache -cache:il1 dl1 -cache:dl1 ul1:256:32:8:l -cache:il2 none -cache:dl2 none -tlb:itlb none -tlb:dtlb none Benchmarks/gcc/cc1.ss Benchmarks/gcc/gcc.i

sim: ** simulation statistics **
sim_num_insn               45177504 # total number of instructions executed
sim_num_refs               16747894 # total number of loads and stores executed
sim_elapsed_time                  3 # total simulation time in seconds
sim_inst_rate          15059168.0000 # simulation speed (in insts/sec)
ul1.accesses               62055905 # total number of accesses
ul1.hits                   61050270 # total number of hits
ul1.misses                  1005635 # total number of misses
ul1.replacements            1003587 # total number of replacements
ul1.writebacks                83769 # total number of writebacks
ul1.invalidations                 0 # total number of invalidations
ul1.miss_rate                0.0162 # miss rate (i.e., misses/ref)
ul1.repl_rate                0.0162 # replacement rate (i.e., repls/ref)
ul1.wb_rate                  0.0013 # writeback rate (i.e., wrbks/ref)
ul1.inv_rate                 0.0000 # invalidation rate (i.e., invs/ref)
ld_text_base             0x00400000 # program text (code) segment base
ld_text_size                2166768 # program text (code) size in bytes
ld_data_base             0x10000000 # program initialized data segment base
ld_data_size                 264644 # program init'ed `.data' and uninit'ed `.bss' size in bytes
ld_stack_base            0x7fffc000 # program stack segment base (highest address in stack)
ld_stack_size                 16384 # program initial stack size
ld_prog_entry            0x00400140 # program entry point (initial PC)
ld_environ_base          0x7fff8000 # program environment base address address
ld_target_big_endian              0 # target executable endian-ness, non-zero if big endian
mem.page_count                  703 # total number of pages allocated
mem.page_mem                  2812k # total size of memory pages allocated
mem.ptab_misses                 713 # total first level page table misses
mem.ptab_accesses         227864746 # total page table accesses
mem.ptab_miss_rate           0.0000 # first level page table miss rate